Version 4.1
SHEET 1 880 680
WIRE -32 64 -80 64
WIRE 32 64 -32 64
WIRE 160 64 32 64
WIRE 448 64 288 64
WIRE 448 80 448 64
WIRE 32 144 32 64
WIRE -80 160 -80 64
WIRE 160 160 160 144
WIRE 176 160 160 160
WIRE 176 176 176 160
WIRE 112 224 32 224
WIRE 112 288 112 224
WIRE 288 288 288 144
WIRE 288 288 112 288
FLAG 448 144 0
FLAG -80 240 0
FLAG -32 128 0
FLAG 176 272 0
FLAG 32 288 0
SYMBOL ind 144 48 R0
SYMATTR InstName L1
SYMATTR Value 0.209µ
SYMATTR Type ind
SYMBOL cap 432 80 R0
SYMATTR InstName C1
SYMATTR Value 0.1p
SYMBOL res 16 128 R0
SYMATTR InstName R1
SYMATTR Value 500
SYMBOL voltage -80 144 R0
WINDOW 123 0 0 Left 0
WINDOW 39 0 0 Left 0
SYMATTR InstName V1
SYMATTR Value 40
SYMBOL cap -48 64 R0
SYMATTR InstName C2
SYMATTR Value 4.7µ
SYMBOL npn 112 176 R0
SYMATTR InstName Q1
SYMBOL ind 304 160 R180
WINDOW 0 36 80 Left 2
WINDOW 3 36 40 Left 2
SYMATTR InstName L2
SYMATTR Value 927µ
SYMATTR Type ind
SYMBOL diode 48 288 R180
WINDOW 0 24 64 Left 2
WINDOW 3 24 0 Left 2
SYMATTR InstName D1
TEXT -112 328 Left 2 !.tran 0.0001 startup
TEXT 160 24 Left 2 !k1 l1 l2 0.7
